HPDV10  01838723010513
D8189425500030939589409000120    VERACRISTINAVIEZORKOSKY00598185909      RHUMBERTONOBILE101                      CALIFORNIA                    86040-110LONDRINA                      PR                                                                                        39589409000120    302                 OUTROS          
D8189425500030921211074000147    KILCOMERCIODEGENEROSALIMENTICIOSLTD     RUASAOFRANCISCO64                       CENTRO                        86820-000CALIFORNIA                    PR                                                                                        21211074000147    303                 OUTROS          
D8189425500030940694072000362    OBAOBAQUEIJOSEIOGURTESLTDA              AVENIDASAULELKIND5099                   RESIDENCIALTOCANTINS          86086-000LONDRINA                      PR                                                                                        40694072000362    361                 OUTROS          
D8189425500030912433258000160    DPINHEIRODESIQUEIRA                     RUAIMBUZEIRO41                          VILANOGUEIRA                  84250-000IMBAU                         PR                                                                                        12433258000160    333                 OUTROS          
D8189425500030926722992000154    JULIANANATALISILVEIRADELIMA05069826     AVPARANA679                             CENTRO                        84350-000ORTIGUEIRA                    PR                                                                                        26722992000154    156                 OUTROS          
D8189425500030932147848000134    ILSEIADACRUZMATTEOLI-SUPERMERCADO       RUAGERSONILEITEDOSSANTOS731             CENTRO                        84920-000JAPIRA                        PR                                                                                        32147848000134    323                 OUTROS          
D8189425500030981669749000209    SUPERMERCADOSCECILIAEIRELI              AVMARECHALFLORIANOPEIXOTO854            ALTODASOLIVEIRAS              84226-010TELEMACOBORBA                 PR                                                                                        81669749000209    157                 OUTROS          
D8189425500030979590378000142    VAREJAODEALIMENTOSDOISIRMAOSLTDA        RUAJOSETETUOSAITO241                    CONJUNTOHABITACIONALJESUALDO  86031-430LONDRINA                      PR                                                                                        79590378000142    302                 OUTROS          
D8189425500030900044076304934    ANDERSONCOSTACOMERCIODEALI              RUAROSANEWAINBERG695                    JARDIMNOVAESPERANCA           86044-630LONDRINA                      PR                                                                                        00044076304934    302                 OUTROS          
D8189425500030900013708076940    VALBERTCOMERCIOALIMENTOSLTDAPONTOSAB    RUAGOIAS1819                            CENTRO                        86010-460LONDRINA                      PR                                                                                        00013708076940    302                 OUTROS          
D8189425500030900003568392909    JAIRBERBETSOUZAEDIALTD                  RUAJOAOBORGES160                        JARDIMTOKIO                   86063-290LONDRINA                      PR                                                                                        00003568392909    302                 OUTROS          
D8189425500030911323447000207    VILASBOASCHAVES&CIALTDA                 AVENIDAMARECHALDEODORODAFONSECA1690     NOSSASENHORADOPERPETUOSOCO    84265-210TELEMACOBORBA                 PR                                                                                        11323447000207    157                 OUTROS          
D8189425500030928737026000217    ANACARLACUSTODIOFERREIRA                RODPR092S/N                             AGUADASPALMEIRAS              84940-000SIQUEIRACAMPOS                PR                                                                                        28737026000217    318                 OUTROS          
D8189425500030900003848970961    PEDROLEANDRODACRUZ                      RUAJOSESANCHES435                       NOVOCENTRO                    87140-000PAICANDU                      PR                                                                                        00003848970961    000                 OUTROS          
D8189425500030919949182000170    NSAEMPREENDIMENTOSPARTICIPACOESEAD      RUAPADREJOAOBARBIERI120                 CENTRO                        86900-000TAPEJARA                      PR                                                                                        19949182000170    000                 OUTROS          
D8189425500030927270626000174    ALEXSANDROFERREIRA                      RUAATLANTICA278                         CENTRO                        86825-000MARILANDIADOSUL               PR                                                                                        27270626000174    353                 OUTROS          
D8189425500030903847897000181    J.LOPESFIGUEIREDOESANTANALTDA           RUAARCINDOSARDO959                      JD.DASAMERICAS                86076-140LONDRINA                      PR                                                                                        03847897000181    000                 OUTROS          
D8189425500030926144049000101    LANDCLERBARBOZATORESAN67589596949       RPADREJONASVAZSANTOS462                 CENTRO                        86170-000SERTANOPOLIS                  PR                                                                                        26144049000101    000                 OUTROS          
D8189425500030932059516000106    32.059.516CLAUDIAAPARECIDAALVES         AVENIDAGINESPARRA440                    CONJUNTOHABITACIONALMARIACE   86085-040LONDRINA                      PR                                                                                        32059516000106    361                 OUTROS          
D8189425500030928603375000165    JEANGONCALVESDALUZ                      RUATOGO158                              VILAGODOY                     84350-000ORTIGUEIRA                    PR                                                                                        28603375000165    156                 OUTROS          
D8189425500030917875047000100    BOAVISTACOMBUSTIVEISLTDA                RODDOCAFE1935                           BR376                         84350-000ORTIGUEIRA                    PR                                                                                        17875047000100    156                 OUTROS          
D8189425500030915170247000123    FABIANEADAMSKIRODRIGUES                 AVBRASIL718                             CENTRO                        84350-000ORTIGUEIRA                    PR                                                                                        15170247000123    156                 OUTROS          
D8189425500030929905201000110    MILESSAAPARECIDACORDEIRO                RUANAIRBUENODEMORAES20                  DISTRITOINDLPEDROVALLE        86450-000QUATIGUA                      PR                                                                                        29905201000110    325                 OUTROS          
D8189425500030930887564000159    MAURICIOALEIXODESANDES                  RODBR376KM3321234                       BAIRRODOSFRANCAS              84350-000ORTIGUEIRA                    PR                                                                                        30887564000159    156                 OUTROS          
D8189425500030917685588000167    RAFAELAINGRIDSUTIL                      RGOIAS281                               CENTRO                        84350-000ORTIGUEIRA                    PR                                                                                        17685588000167    156                 OUTROS          
D8189425500030910885279000191    BOMPANECIALTDA                          AVDASHORTENCIAS670                      JARDIMNOVOHORIZON             86604-344ROLANDIA                      PR                                                                                        10885279000191    359                 OUTROS          
D8189425500030919544505000145    A.DESOUZAROSA-LANCHONETE-ME             RUADOMINGOSBERTONCELLO190               CONJUNTOHABITACION            86606-076ROLANDIA                      PR                                                                                        19544505000145    359                 OUTROS          
D8189425500030919727782000193    RAFAELHENRIQUESALVADOR.ME               RUAPROF.CONCEICAOC.ORMENEZE609          V.OSVALDOGIACOIA              86410-000RIBEIRAOCLARO                 PR                                                                                        19727782000193    349                 OUTROS          
D8189425500030928911425000171    JANAINADASILVAVITALINO                  RIVOFARTOBRITO730                       JARDIMCOLINAVERDE             86430-000SANTOANTONIODAPLATINA         PR                                                                                        28911425000171    327                 OUTROS          
D8189425500030900009997442911    ANDREIATEODORODESOUZA                   AVCURITIBA360                           CENTRO                        86680-000NOSSASENHORADASGRACAS         PR                                                                                        00009997442911    000                 OUTROS          
D8189425500030921863513000287    HELTONCANEDOBARBOSAECIALTDA             ESTDAPONTENOVASN                        PONTENOVA                     84940-000SIQUEIRACAMPOS                PR                                                                                        21863513000287    318                 OUTROS          
D8189425500030900006904066903    DOUGLASCHAVES                           RUARIOCANTU694                          PQALVAMAR                     87113-610SARANDI                       PR                                                                                        00006904066903    000                 OUTROS          
D8189425500030900003604502969    ANDERSONAURELIOGOMES                    RUA7DEABRIL995                          RESIDENCIALAEROPORTO          87055-210MARINGA                       PR                                                                                        00003604502969    000                 OUTROS          
D8189425500030900070864373953    LUIZCARLOSFERREIRADESOUZA               RUAJOAOFRAGAL147                        SAOMIGUELDOCAMBUI             87035-540MARIALVA                      PR                                                                                        00070864373953    000                 OUTROS          
D8189425500030900067969976972    OSVALDODELIMASILVA                      AVCARLOSCORREIABORGES728                VILANOVAJUNIOR                87060-000MARINGA                       PR                                                                                        00067969976972    000                 OUTROS          
D8189425500030908512262000147    J.EDUARDOASSAYECIALTDA                  AVELIOMARMEIRAXAVIER10-A                CENTRO                        84261-040TELEMACOBORBA                 PR                                                                                        08512262000147    157                 OUTROS          
D8189425500030905379630000132    EDSONFERREIRADASILVA-COMERCIOESER       RODPR-160800                            AREA01                        84268-310TELEMACOBORBA                 PR                                                                                        05379630000132    157                 OUTROS          
D8189425500030900006729802901    DIEGOFRANCISCOSILVACHAGAS               RUAHEITORMORO168                        COSTEIRA                      87035-540SAOJOSEDOSPINHAIS             PR                                                                                        00006729802901    000                 OUTROS          
D8189425500030900010346519942    DANILOAUGUSTOMENEGUELLO                 RUADUQUEDECAXIAS1093                    JARDIMPANORAMA                87113-120SARANDI                       PR                                                                                        00010346519942    000                 OUTROS          
D8189425500030900053371666972    CLAUDECIRALVESPEREIRA                   RUADOSLIRIOS510                         JARDIMVERAO                   87111-520SARANDI                       PR                                                                                        00053371666972    000                 OUTROS          
D8189425500030900001687821976    LUIZFERNANDOBARBOSA                     ALAMEDASANTAMARIA47                     CENTRO                        87820-000CIDADEGAUCHA                  PR                                                                                        00001687821976    000                 OUTROS          
D8189425500030900004491659907    FABIOJUNIORAPARECIDOMASCHETO            RUABATISTAMARCONI1303B                  CENTRO                        87140-000PAICANDU                      PR                                                                                        00004491659907    000                 OUTROS          
D8189425500030932874365000131    FABRICIODEJESUSBUENOEIRELI              RUAQUINZEDENOVEMBRO42                   CENTRO                        84265-400TELEMACOBORBA                 PR                                                                                        32874365000131    157                 OUTROS          
D8189425500030907863009000175    MARIAORLANDADOSSANTOSOLIVEIRA           RUAJOAOSIQUEIRAFILHO1062                SOCOMIM                       84266-050TELEMACOBORBA                 PR                                                                                        07863009000175    157                 OUTROS          
D8189425500030903769025000142    JORGELUISCARNEIRO-VIDRACARIA-ME         AVMARECHALFLORIANOPEIXOTO478            ALTODASOLIVEIRAS              84266-010TELEMACOBORBA                 PR                                                                                        03769025000142    157                 OUTROS          
D8189425500030923835058000150    ARILEIJOSEPEDROALIMENTOS                AVEUCLIDESBONIFACIOLONDRES846           NOSSASENHORADEFA              84264-010TELEMACOBORBA                 PR                                                                                        23835058000150    157                 OUTROS          
D8189425500030903454422000125    M.E.DUBIELA                             RODCELSOGARCIACIDKM38SN                 LINHASUBURBANA                86170-000SERTANOPOLIS                  PR                                                                                        03454422000125    306                 OUTROS          
D8189425500030929900603000121    JOSEROBERTOSILVAMACHADO                 AVAVIACAO731                            JARDIMTRABALHISTA             86807-000APUCARANA                     PR                                                                                        29900603000121    150                 OUTROS          
D8189425500030902180007000168    NOGUEIRAETINPHLTDA                      AVJOSEAFONSODOSSANTOS774                JDSTOAMARO                    86185-000CAMBE                         PR                                                                                        02180007000168    301                 OUTROS          
D8189425500030929620740000102    LUCASAPARECIDODASILVA08162038906        RBARBUDODECOROA79                       CONJ.PADREBERNARDOMERCKEL     86706-230ARAPONGAS                     PR                                                                                        29620740000102    153                 OUTROS          
D8189425500030917882012000190    FABIOMATEUSDASILVAFRAZAO                RRIOPARANA137                           JARDIMDOCAFE                  86185-670CAMBE                         PR                                                                                        17882012000190    000                 OUTROS          
D8189425500030924703377000175    E.AURIEME-ME                            RUAROSARIBEIROZACARIAS14                JARDIMCATUAI                  86802-618APUCARANA                     PR                                                                                        24703377000175    150                 OUTROS          
D8189425500030944139677000180    SUPERMERCADOREIDAVILTDA                 RUAFORMIGUEIRODASERRA525525             CONJUNTOPALMARES              86706-400ARAPONGAS                     PR                                                                                        44139677000180    153                 OUTROS          
D8189425500030913227023000185    PEDROECONCEICAOLTDA-ME                  RODBR153-KM38SN                         TREVOBR153/PR092              86430-000SANTOANTONIODAPLATINA         PR                                                                                        13227023000185    327                 OUTROS          
D8189425500030975387563002208    MITRADIOCESANADECORNELIOPROCOPIO        PCCONSTANTBORGESS/N                     CENTRO                        84280-000CURIUVA                       PR                                                                                        75387563002208    360                 OUTROS          
D8189425500030919999189000104    MAESTRE&BARBOSALTDADONAJU               RUAALMADEGATO211                        JARDIMARAUCARIAS              86709-015ARAPONGAS                     PR                                                                                        19999189000104    153                 OUTROS          
D8189425500030972165822000133    ANDREZANINETIDEMATOS                    RUAPARANA190                            CENTRO                        84900-000IBAITI                        PR                                                                                        72165822000133    324                 OUTROS          
D8189425500030922134459000110    MARLENELUIZACOELHOANTUNES03004878941    RUAFALCAO1318                           CENTRO                        86700-165ARAPONGAS                     PR                                                                                        22134459000110    153                 OUTROS          
D8189425500030913768642000187    SUPERMERCADODALRRI-EIRELI               RCARLOTAGONCALVESARREBOLA374            JARDIMPRIMAVERA               86300-000CORNELIOPROCOPIO              PR                                                                                        13768642000187    347                 OUTROS          
D8189425500030907652396000109    SENEMIGUEL&CIALTDA                      RODPARIGOTDESOUZAPR092S/N               SANTATEREZINHA                84940-000SIQUEIRACAMPOS                PR                                                                                        07652396000109    318                 OUTROS          
D8189425500030931046292000127    CLIVATICOMERCIODEALIMENTOSLTDA          AVARTHURTHOMAS823                       RODOCENTRO                    86065-000LONDRINA                      PR                                                                                        31046292000127    302                 OUTROS          
D8189425500030911782808000194    S.M.LOMBA-ME                            RUAANTONIOAMORIMDEOLIVEIRA91            FAZENDAPALMITAL               86430-000SANTOANTONIODAPLATINA         PR                                                                                        11782808000194    327                 OUTROS          
D8189425500030928574103000184    GUILHERMEPERICOGUANDELINI               RDOISDEABRIL394                         CENTRO                        86400-000JACAREZINHO                   PR                                                                                        28574103000184    167                 OUTROS          
D8189425500030965648701000187    MIRIANSANTANASTEFENME                   RALLANKARDEC546                         CALIFORNIA                    86140-190LONDRINA                      PR                                                                                        65648701000187    000                 OUTROS          
D8189425500030912887339000130    P.R.HERRERA-DISTRIBUIDORADEALIMENTO     RUACASACADECOURO4940                    RESIDENCIALARAUCARIA          86710-030ARAPONGAS                     PR                                                                                        12887339000130    153                 OUTROS          
D8189425500030905095320000196    IRENEJORGEDAROSADIAS                    RUADR.JOAODEAGUIAR381                   VILASETTI                     86400-000JACAREZINHO                   PR                                                                                        05095320000196    167                 OUTROS          
D8189425500030912022252000109    PAOSUAVESABORLTDA                       AVMANOELRIBAS732                        CENTRO                        84290-000SAPOPEMA                      PR                                                                                        12022252000109    316                 OUTROS          
D8189425500030904924990000105    CASADECARNESJAPAOLTDA                   AVBANDEIRANTES991                       CENTRO                        86360-000BANDEIRANTES                  PR                                                                                        04924990000105    160                 OUTROS          
D8189425500030911369708000130    MPBALIELO-MERCADO                       RUANOSSASENHORADOROCIO685               CENTRO                        86390-000CAMBARA                       PR                                                                                        11369708000130    158                 OUTROS          
D8189425500030933250768000172    LUISCARLOSDONASCIMENTO                  AVDRANTONIOPEREIRALIMA590               CENTRO                        86350-000SANTAMARIANA                  PR                                                                                        33250768000172    346                 OUTROS          
D8189425500030980031461000160    PEDROCARNEIROJUNIORME                   RUAJOAOPAULOII763                       VILAROMANA                    84990-000ARAPOTI                       PR                                                                                        80031461000160    304                 OUTROS          
D8189425500030900974731000642    FRANGOSPIONEIROINDUSTRIAECOMERCIODE     RODPARIGOTDESOUZAPR092KM302.8S/N        JOAQUIMTAVORA                 86455-000JOAQUIMTAVORA                 PR                                                                                        00974731000642    319                 OUTROS          
D8189425500030900023511729904    MARCOSBDESOUZAEPEDROBDE                 RUAADALMIRAFERREIRAMARTINS364           CAFEZAL1                      86049-170LONDRINA                      PR                                                                                        00023511729904    302                 OUTROS          
D8189425500030909576998000141    COMERCIALVILARICALTDA                   RUAJULIOGIOVANNETTI47                   VILARICA                      86430-000SANTOANTONIODAPLATINA         PR                                                                                        09576998000141    327                 OUTROS          
D8189425500030929892440000182    ANACAROLINADEANDRADELTDA                RUATICOTICODOBICOAMARELO542             JARDIMUNIVERSITARIO           86702-690ARAPONGAS                     PR                                                                                        29892440000182    153                 OUTROS          
D8189425500030905943153000196    W&MCOMERCIODEALIMENTOSLTDA              RUABARBUDODECOROA267                    CONJ.PADREBERNARDOMERCKEL     86706-230ARAPONGAS                     PR                                                                                        05943153000196    153                 OUTROS          
D8189425500030976643204000102    GRANADIEREFARIALTDA                     RUASAOPAULO1738                         CENTRO                        86360-000BANDEIRANTES                  PR                                                                                        76643204000102    160                 OUTROS          
D8189425500030978247780000166    ASSOCIACAODEPAISEAMIGOSDOSEXCEPCIO      RMUNHOZDAROCHA499                       CENTRO                        86455-000JOAQUIMTAVORA                 PR                                                                                        78247780000166    319                 OUTROS          
D8189425500030900293206000157    BOMBOCADOPADARIAECONFEITARIALTDA        RUAMILAO371                             JDPIZZA                       86041-200LONDRINA                      PR                                                                                        00293206000157    302                 OUTROS          
D8189425500030919634223000139    DANIELLARIBEIROLOPES05230471930         RJOAORODRIGUESDEOLIVEIRA184             CENTRO                        86490-000RIBEIRAODOPINHAL              PR                                                                                        19634223000139    345                 OUTROS          
D8189425500030927799020000120    ALEXSANDROGONCALVESDEMATOSCOMERCIO      RUAJOSECASTANHEIRA428                   SAOSEBASTIAO                  86455-000JOAQUIMTAVORA                 PR                                                                                        27799020000120    319                 OUTROS          
D8189425500030939589062000116    BUENO&ACOSTACOMERCIODEALIMENTOSLTD      AVPARANA565                             CENTRO                        86455-000JOAQUIMTAVORA                 PR                                                                                        39589062000116    319                 OUTROS          
D8189425500030919298748000140    JESSICACAROLINEEVANGELISTA              AVMANOELRIBAS566                        CENTRO                        86320-000CONGONHINHAS                  PR                                                                                        19298748000140    356                 OUTROS          
D8189425500030900010139566996    EDSONCARLOSCUSTODIO                     RUAJOAODALEVEDOVE168                    JARDIMDOSALPESIII             86045-510LONDRINA                      PR                                                                                        00010139566996    302                 OUTROS          
D8189425500030925046187000195    ABELDEOLIVEIRAPENTEADO                  RUARIOGRANDEDOSUL357                    VILAFREDERICO                 86210-000JATAIZINHO                    PR                                                                                        25046187000195    326                 OUTROS          
D8189425500030921257072000199    C.PEREIRADACUNHAOLIVEIRAMINIMERCADO     AVPARANA466                             CENTRO                        84920-000JAPIRA                        PR                                                                                        21257072000199    323                 OUTROS          
D8189425500030933646443000103    VIVENDAPANIFICACAOEPADARIALTDA          RUARIOIGUACU262                         JARDIMSANTOAMARO              86185-090CAMBE                         PR                                                                                        33646443000103    301                 OUTROS          
D8189425500030905990793000157    PANIFICADORABARREIROGRANDELTDA          AVHARRYPROCHET1305                      JDMEDITERRANEO                86047-040LONDRINA                      PR                                                                                        05990793000157    362                 OUTROS          
D8189425500030931266367000185    COMERCIODECARNESBOINABRASALONDRINA      RUACASSITERITA456                       WALDEMARHAUER                 86030-110LONDRINA                      PR                                                                                        31266367000185    361                 OUTROS          
D8189425500030911664191000102    MARIELLEMAILANDACOSTALUCAS              AVPRESIDENTEGETULIOVARGAS605            CENTRO                        86210-000JATAIZINHO                    PR                                                                                        11664191000102    326                 OUTROS          
D8189425500030926392363000103    VALDINEIACRISTINADAMATA                 AVBENTOAMARALMONTEIRO1465               JARDIMSTRASS                  86084-830LONDRINA                      PR                                                                                        26392363000103    361                 OUTROS          
D8189425500030937225086000160    WEVERTONDACOSTA06474851929              RATILIOPRUDENTEDEMELLO53                HEIMTAL                       86084-026LONDRINA                      PR                                                                                        37225086000160    361                 OUTROS          
D8189425500030980853252000100    ARMANDONOEDIRPERETI                     RUAPASCHOALCARLOSMAGNO15                CONJUNTOVIVIXAVIER            86082-095LONDRINA                      PR                                                                                        80853252000100    361                 OUTROS          
D8189425500030928628958000140    ELAINEBARBOZAROMEIRO04941839935         RUAJOAOVOLTARELLI265                    CENTRO                        86820-000CALIFORNIA                    PR                                                                                        28628958000140    303                 OUTROS          
D8189425500030942498795000150    LUCASTEIXEIRADEALBUQUERQUE              RUASANTOS627                            CENTRO                        86020-040LONDRINA                      PR                                                                                        42498795000150    302                 OUTROS          
D8189425500030937496989000186    VALDEMARCUNHA50837443920                RUARECIFE791                            VILASANTANA                   86400-000JACAREZINHO                   PR                                                                                        37496989000186    167                 OUTROS          
D8189425500030940049153000148    LUCIAHELENADOSSANTOSFURTADO73125040     AVENIDAMARCIANODEBARROS1179             CENTRO                        86400-000JACAREZINHO                   PR                                                                                        40049153000148    167                 OUTROS          
D8189425500030935992893000183    CARINEFERREIRADECASTRO06695308918       AVPARANA313                             IRERE                         86115-000LONDRINA                      PR                                                                                        35992893000183    341                 OUTROS          
D8189425500030921571580000147    ANAPAULARIBEIRO-RESTAURANTE-ME          RODPR445SN                              RODOVIA3339                   86125-000TAMARANA                      PR                                                                                        21571580000147    312                 OUTROS          
D8189425500030939148602000126    BALANGANDACOMEDYCLUBEBARLTDA.           RUAPARANAGUA1120                        CENTRO                        86020-031LONDRINA                      PR                                                                                        39148602000126    302                 OUTROS          
D8189425500030980827082000181    CASADECARNESJFNLTDA                     AVSANTAMONICA358                        FRANCA                        86027-610LONDRINA                      PR                                                                                        80827082000181    302                 OUTROS          
D8189425500030902798758000142    ADILSONCUSTODIOCOMERCIODEMERCADORIAS    AVSANTAMONICA398                        VILASANTATEREZINHA            86027-660LONDRINA                      PR                                                                                        02798758000142    302                 OUTROS          
D8189425500030907014490000124    LAPADARIAECONFEITARIALTDA               RUALAZAROZAMENHOF453                    SANFERNANDO                   86040-350LONDRINA                      PR                                                                                        07014490000124    302                 OUTROS          
D8189425500030928577683000163    MONDECK&MONDECKCASADECARNESLTDA         AVENIDAPRESIDENTEABRAHAMLINCOLN181      JARDIMDOSALPESIII             86049-090LONDRINA                      PR                                                                                        28577683000163    362                 OUTROS          
D8189425500030940444595000199    PCDASILVA-MERCADO                       RPEDROFERREIRADACOSTA1834               CENTRO                        86270-000SAOJERONIMODASERRA            PR                                                                                        40444595000199    352                 OUTROS          
D8189425500030903836704000197    R.M.PEREIRA&CIALTDA                     RUASERRADOSPIRINEUS1040                 BANDEIRANTES                  86065-610LONDRINA                      PR                                                                                        03836704000197    302                 OUTROS          
D8189425500030938177486000100    VILAPALHANORESTAURANTELTDA              RUAJOAOWYCLIF111                        GLEBAFAZENDAPALHANO           86050-450LONDRINA                      PR                                                                                        38177486000100    362                 OUTROS          
D8189425500030981427692000150    CHURRASCARIALIMOZINILTDA                AVTIRADENTES1100                        JD.SHANGRILA                  86050-155LONDRINA                      PR                                                                                        81427692000150    302                 OUTROS          
D8189425500030900758103000115    VALDINEIBARBOSA                         RUAANTONIODEMOURABUENOS/N               CENTRO                        84900-000IBAITI                        PR                                                                                        00758103000115    324                 OUTROS          
D8189425500030918735248000166    LAERCIODOSSANTOSCAMARGO-MERCADO         RUAJOAQUIMMODESTODEPINHO04              CONJUNTOBOAVISTA              86270-000SAOJERONIMODASERRA            PR                                                                                        18735248000166    352                 OUTROS          
D8189425500030929477816000192    FEIJUCAGRILLEIRELI-ME                   LOCRODOVIACELSOGARCIACID5600            JARDIMSABARA                  86066-230LONDRINA                      PR                                                                                        29477816000192    362                 OUTROS          
D8189425500030985495042000101    NIZAELPEDRO                             RUABAHIA16                              DIST.GUARAVERA                86026-020LONDRINA                      PR                                                                                        85495042000101    337                 OUTROS          
D8189425500030934638525000179    THIAGOBOZZOLANTEODORO00587835982        RSAOVICENTEDEPAULA355                   JDSEMPREBOM                   86200-000IBIPORA                       PR                                                                                        34638525000179    305                 OUTROS          
D8189425500030936606189000108    MATHEUSBORGESCADARI                     RUADEPBENEDITOLUCIOMACHADO520           JDSANTAEFIGENIA               86430-000SANTOANTONIODAPLATINA         PR                                                                                        36606189000108    327                 OUTROS          
D8189425500030946207351000179    KARENCRISTINADEALMEIDA05330533902PON    AVWISTONCHURCHILL1266                   COLISEU                       86080-120LONDRINA                      PR                                                                                        46207351000179    361                 OUTROS          
D8189425500030900003480210970    VITORHUGODEOLIVEIRA                     AVENIDAJOSEAFONSODOSSANTOS61            JARDIMSANTOAMARO              86185-000CAMBE                         PR                                                                                        00003480210970    300                 OUTROS          
D8189425500030924588488000188    BAIANOACOUGUEEPADARIALTDA               RUACARLOSFLORODEMELLO43                 LOTEAMENTORESIDENCIALJACANA   86812-844APUCARANA                     PR                                                                                        24588488000188    150                 OUTROS          
D8189425500030919221527000174    DONIZETEOLIMPIO02826465902              RVEREADORARLETEMARINELLI105             LOTEAMENTOAGUADAESPERANCA     86189-450CAMBE                         PR                                                                                        19221527000174    301                 OUTROS          
D8189425500030930639549000191    RMQUIRINOLEONELRESTAURANTE              AVENIDAMARECHALFLORIANOPEIXOTO713       ALTODASOLIVEIRAS              84266-010TELEMACOBORBA                 PR                                                                                        30639549000191    157                 OUTROS          
D8189425500030902914460004490    SEARAALIMENTOSLTDA                      RODBR153S/N                             AEROPORTO                     86400-000JACAREZINHO                   PR                                                                                        02914460004490    300                 OUTROS          
D8189425500030944583022000105    SUPREMA-MERCADOECASADECARNESLTDA        RUAOSORIOANTUNESDEFARIA216              CONJHABOCTAVIANOHERACLIODU    86210-000JATAIZINHO                    PR                                                                                        44583022000105    326                 OUTROS          
D8189425500030941006528000155    FABIANACORDEIRODESOUZAMATOCANO05581     RUAITALIA52                             MORADADOSOL                   86000-000CAMBE                         PR                                                                                        41006528000155    301                 OUTROS          
D8189425500030931434057000122    REGIANEA.AGOSTINHOEIRELI                AVENIDAEUROPA1075                       PARQUERESIDENCIALJOAOPIZA     86041-000LONDRINA                      PR                                                                                        31434057000122    362                 OUTROS          
D8189425500030910841128000131    ILAIRBORSATTO-RESTAURANTE               RODBR1532467                            VILACLARO                     86430-000SANTOANTONIODAPLATINA         PR                                                                                        10841128000131    327                 OUTROS          
D8189425500030950221019002856    [PADARIAECONFEITARIAHORCAILTDA          RUAELIASDANIELHATTI699                  CONJ.AQUILESSTHENGEL          86086-090LONDRINA                      PR                                                                                        50221019002856    000                 OUTROS          
D8189425500030902180098000131    CHURACARIASOLSULLTDA                    ROD.MELLOPEIXOTO5283                    J.ST.ADELAIDE                 86192-170LONDRINA                      PR                                                                                        02180098000131    001                 OUTROS          
D8189425500030900449043000159    ARTURDASILVAFILHOPADARIAME              RUAFRANCISCODEMELOPALHETA360            CONJ.DOCAFE                   86081-290LONDRINA                      PR                                                                                        00449043000159    000                 OUTROS          
D8189425500030902808708002223    MARIAONEIDEDESOUZAECIALTDA              RUACACILDANASVALHONEME300               CJ.HILDAMANDARINO             86080-520LONDRINA                      PR                                                                                        02808708002223    000                 OUTROS          
D8189425500030908946673000140    CESARPEREIRADOSSANTOS                   AV.PARANAPONTECLUBE,412412              MORUMBI                       86188-580LONDRINA                      PR                                                                                        08946673000140    000                 OUTROS          
D8189425500030908940961000198    CASTELDIBRAGARESTAURANTELTDA            AV.SANTOSDUMON15651565                  NOVOAEROPONTO                 86039-090LONDRINA                      PR                                                                                        08940961000198    000                 OUTROS          
D8189425500030907144408000186    ISABELLARIBEIRODASILVAEARAUJO           RUAMARINGA,550550                       BAIRROVITORIA                 86060-000LONDRINA                      PR                                                                                        07144408000186    000                 OUTROS          
D8189425500030900059571446904    LEONILDOBUACHAK                         AV.191                                  DEDEZAEMBRO1833               86200-000LONDRINA                      PR                                                                                        00059571446904    000                 OUTROS          
D8189425500030934400715000153    JOAOGABRIELDEMORAISRODELLA              RUADAMASCO456                           JARDIMMORUMBI                 86035-040LONDRINA                      PR                                                                                        34400715000153    302                 OUTROS          
D8189425500030977033249000128    ANTONIORIBEIRODEASSUNCAOECIALTDA        RUAREGINALDOGUEDESNOCERA1891            CENTRO                        84300-000TIBAGI                        PR                                                                                        77033249000128    000                 OUTROS          
D8189425500030917155254000181    CLAUDEMIRAPARECIDOGOES                  AVESPERANCA446                          JDDOCAFE                      86186-260CAMBE                         PR                                                                                        17155254000181    000                 OUTROS          
D8189425500030977706869000180    LUCIANOHEREK                            AV.INGLATERRA331                        JD.IGAPO                      86043-430LONDRINA                      PR                                                                                        77706869000180    001                 OUTROS          
D8189425500030902805376000107    PADARIAECONF.TONLTDA                    AV.MARIOGOBO369                         JD.EUCALIPTO                  86031-580LONDRINA                      PR                                                                                        02805376000107    302                 OUTROS          
D8189425500030909484226000180    LANCHONETEZAIZERIALTDA                  AV.LONDRINA336                          SANRAFAEL                     86200-000IBIPORA                       PR                                                                                        09484226000180    000                 OUTROS          
D8189425500030900004536996931    ELIANAFERREIRACUBASGUEDES               RUA,POMPEUSOARESCARDOSO,650650          JDSAOPAULO                    86083-470LONDRINA                      PR                                                                                        00004536996931    000                 OUTROS          
D8189425500030900000582408962    ISANETEAPARECIDALOPES                   AV.MARIOJOSERUMANHOLI,560560            JDALTOBOAVISTA                86076-090LONDRINA                      PR                                                                                        00000582408962    000                 OUTROS          
D8189425500030904301484000160    MARCIOAP.R.GENEROSALIMENTICIOS          RBENTOAMARALMONTEIRO1333                JDITAPOIA                     86001-970LONDRINA                      PR                                                                                        04301484000160    000                 OUTROS          
D8189425500030911579274000101    BARBARACRISTINAGARCIA                   AVENIDAHENRIQUEMANSANO1397              JARDIMDOSALPESI               86075-000LONDRINA                      PR                                                                                        11579274000101    361                 OUTROS          
D8189425500030912635248000108    FASZANI                                 AVCANADA105                             CENTRO                        86890-000CAMBIRA                       PR                                                                                        12635248000108    000                 OUTROS          
D8189425500030915176742000140    CAMILAGUALIUMEBALDAN                    RUARUIBARBOSA23                         CENTRO                        86385-000BARRADOJACARE                 PR                                                                                        15176742000140    000                 OUTROS          
D8189425500030929032721000165    GIMENESEFONSECALTDA-ME                  RRUIBARBOSA73                           CENTRO                        86385-000BARRADOJACARE                 PR                                                                                        29032721000165    000                 OUTROS          
D8189425500030915217302000193    TATIANECARLAFREITASECIALTDA             RUARUIBARBOSA86                         CENTRO                        86385-000BARRADOJACARE                 PR                                                                                        15217302000193    000                 OUTROS          
D8189425500030909504467000143    CECILIAGAVLAKSOLTOWSKI                  AVANTONIOCUNHA797                       CENTRO                        84280-000CURIUVA                       PR                                                                                        09504467000143    000                 OUTROS          
D8189425500030923059419000114    JOAOPAULOPEDROBEGA07196703901           RRUIBARBOSA800A                         CENTRO                        86430-000SANTOANTONIODAPLATINA         PR                                                                                        23059419000114    327                 OUTROS          
D8189425500030922302656000100    JOED-REFEICOESINDUSTRIAISLTDA-M         AVTIRADENTES7100                        JARDIMROSICLER                86072-000LONDRINA                      PR                                                                                        22302656000100    302                 OUTROS          
D8189425500030923306729000196    HELLORESTAURANTELTDA-ME                 AVPARANA590                             CENTRO                        86010-390LONDRINA                      PR                                                                                        23306729000196    302                 OUTROS          
D8189425500030913051144000119    TANAKAECIARESTAURANTELTDAME             AVHARRYPROCHET305                       JARDIMMEDITERRANEO            86047-040LONDRINA                      PR                                                                                        13051144000119    362                 OUTROS          
D8189425500030900390253000119    AGRACOMERCIODEALIMENTOSEIRELI-ME        RUAPROFESSORJOAOCANDIDO324              CENTRO                        86010-000LONDRINA                      PR                                                                                        00390253000119    302                 OUTROS          
D8189425500030901602199000190    C.S.DIASECIALTDA                        RUA19DEDEZEMBRO677-A677                 CENTRO                        86200-000IBIPORA                       PR                                                                                        01602199000190    000                 OUTROS          
D8189425500030917417028000121    STRIKER-BAR,RESTAURANTEEENTRETENIME     AVTHEODOROVICTORELLI150                 HELENA                        86027-750LONDRINA                      PR                                                                                        17417028000121    302                 OUTROS          
D8189425500030928433070000152    CLAUDINEIAADASILVA-ME                   RUAJAROSLAUMAISTROVICZ330               NUCLEOHABITACIONALOSMARGFR    86801-600APUCARANA                     PR                                                                                        28433070000152    000                 OUTROS          
D8189425500030930482821000172    T.S.PECANHA-COMERCIOALIMENTOSEIR        RUARIOBRANCO579                         CENTRO                        86800-120APUCARANA                     PR                                                                                        30482821000172    000                 OUTROS          
D8189425500030907371174000100    JOAOCARLOSRODRIGUES-ACOUGUE             RUASAOFRANCISCO401                      CENTRO                        86470-000JUNDIAIDOSUL                  PR                                                                                        07371174000100    000                 OUTROS          
D8189425500030928289714000180    LAHISONERIS-MERCADO                     RUAAVINHADO231                          VILANOVA                      86707-035ARAPONGAS                     PR                                                                                        28289714000180    000                 OUTROS          
D8189425500030931960212000144    CHOPERIAEPETISCARIAGAMBRINUSLTDA        RUADINAMARCA1795                        VILAGUARANI                   86182-040CAMBE                         PR                                                                                        31960212000144    000                 OUTROS          
D8189425500030913014859000100    ONGARATTOEONGARATTOLTDAME               RODMELLOPEIXOTO312                      JARDIMUNIAO                   86185-700CAMBE                         PR                                                                                        13014859000100    000                 OUTROS          
D8189425500030903278937000111    PEDROSIENANETOECIALTDA                  RUAMALFLORIANOPEIXOTO31                 NOVOBANDEIRANTES              86187-120CAMBE                         PR                                                                                        03278937000111    000                 OUTROS          
D8189425500030917819737000133    JMORAESFREIXO-COMERCIODEALIMENTOS       AVTHEODOROVICTORELLI150                 CARLOTA                       86027-750LONDRINA                      PR                                                                                        17819737000133    000                 OUTROS          
D8189425500030907955382000156    LBACOMERCIALDEALIMENTOSLTDA             RUAJOSEALEXANDRE123                     JD.ACAPULCO                   86045-030LONDRINA                      PR                                                                                        07955382000156    000                 OUTROS          
D8189425500030909049462000178    JOSEMARCOSDAPAIXAOCHURRASCARIA          AV.CAETANOMUNHOZDAROCHA1                CENTRO                        86210-000JATAIZINHO                    PR                                                                                        09049462000178    000                 OUTROS          
D8189425500030934072858000183    ROSIMEIRECASTRODEMELLOSILVA             AVBRASIL2003                            CENTRO                        86390-000CAMBARA                       PR                                                                                        34072858000183    158                 OUTROS          
D8189425500030932116432000159    STELLASILVADOSSANTOSMELO09166413923     RJORGEDIBABUSSAFE77                     CONJUNTOPARAISO               86220-000ASSAI                         PR                                                                                        32116432000159    330                 OUTROS          
D8189425500030911105283000152    KIKUCHIEBOGGOCOMERCIODEGENEROSALIM      RUAVENEZA150                            JDPIZA                        86041-250LONDRINA                      PR                                                                                        11105283000152    362                 OUTROS          
D8189425500030926136815000196    EDNADESAMPAIO                           AVCICEROBITTENCOURTRODRIGUES448         CENTRO                        86250-000NOVASANTABARBARA              PR                                                                                        26136815000196    317                 OUTROS          
D8189425500030918401446000193    VAGNERDASILVA                           RUASAOJOSE669                           JARDIMSANTAIZABEL             86183-310CAMBE                         PR                                                                                        18401446000193    000                 OUTROS          
D8189425500030935104810000172    ELISABETIDASILVAJORGE00589100939        RRUAANTONIODIAS463                      CENTRO                        86375-000ITAMBARACA                    PR                                                                                        35104810000172    000                 OUTROS          
D8189425500030915045459000189    JOKASTAREGINADEOLIVEIRA                 RUAJOSESEBASTIAOLOPES570                CENTRO                        86240-000SAOSEBASTIAODAAMOREIRA        PR                                                                                        15045459000189    358                 OUTROS          
D8189425500030908729149000118    PAULOPEREIRADESOUZA                     RUATIBAJI840                            VILARECREIO                   86025-270LONDRINA                      PR                                                                                        08729149000118    000                 OUTROS          
D8189425500030924628018000109    KENIAR.DACRUZECIALTDA                   RUAFOZDOIGUACU120                       JDANAELIZAII                  86188-370LONDRINA                      PR                                                                                        24628018000109    000                 OUTROS          
D8189425500030932085742000153    SIDNEYNAVARRONETO                       AVPEDROFERREIRADACOSTA1025              CENTRO                        86270-000SAOJERONIMODASERRA            PR                                                                                        32085742000153    352                 OUTROS          
D8189425500030910973849000103    PARISEPASSOSLTDA                        RUAHUMAITA723                           KENNEDY                       86060-060LONDRINA                      PR                                                                                        10973849000103    302                 OUTROS          
D8189425500030904893201000116    RESTAURANTEFAVALTDA                     AVTIRADENTES415                         JARDIMSHANGRI-LAA             86070-000LONDRINA                      PR                                                                                        04893201000116    302                 OUTROS          
D8189425500030930135179000155    HERMESPORTOCARVALHO-RESTAURANTE         RUACAETANOMUNHOZDAROCHA1046             CENTRO                        86210-000JATAIZINHO                    PR                                                                                        30135179000155    000                 OUTROS          
D8189425500030923343805000133    DOUGLASHENRIQUEBENETTI-ME               RUARUIBARBOSA72                         CENTRO                        86385-000BARRADOJACARE                 PR                                                                                        23343805000133    000                 OUTROS          
D8189425500030926811974000149    WESLLYANAPINHEIRODESOUZA-ME             RUAANTONIODOSSANTOS580                  CENTRO                        86385-000BARRADOJACARE                 PR                                                                                        26811974000149    000                 OUTROS          
D8189425500030929059880000153    R.C.DEOLIVEIRA-RESTAURANTE-ME           AV06DEJUNHO830                          CENTRO                        86170-000SERTANOPOLIS                  PR                                                                                        29059880000153    000                 OUTROS          
D8189425500030913846141000171    ANGELOMARCIODOMINGUES                   RUASERGIPE27                            CONJSANTACECILIA              84350-000ORTIGUEIRA                    PR                                                                                        13846141000171    000                 OUTROS          
D8189425500030908058824000124    GILSONROBERTODOSSANTOSLIMA              RUAJOAOTALEVI560                        CAETANOMENDES                 84300-000TIBAGI                        PR                                                                                        08058824000124    000                 OUTROS          
D8189425500030981191371000108    LOIVIMARIAMENDESRIBEIRO                 AVJOAOTALEVISN                          CAETANOMENDES                 84300-000TIBAGI                        PR                                                                                        81191371000108    000                 OUTROS          
D8189425500030926072557000121    MERCADOBUENOCAMARGOEGUIMARAESLTDA       RUAPARAILHORIBEIROSN                    CAETANOMENDES                 84315-000TIBAGI                        PR                                                                                        26072557000121    000                 OUTROS          
D8189425500030926597299000105    JJI-COMERCIODECARNESLTDA                RUAISALTINOJOSESILVESTRE281             CENTRO                        86125-000TAMARANA                      PR                                                                                        26597299000105    000                 OUTROS          
D8189425500030920921563000120    RESTAURANTEVIASULLTDA                   RODBR369SN                              SAIDAP/CAMBE                  86600-970ROLANDIA                      PR                                                                                        20921563000120    000                 OUTROS          
D8189425500030972070469000108    PANIFICADORAFAMILYDELONDRINALTDA        RUAFERNANDODENORONHA16                  CENTRO                        86020-300LONDRINA                      PR                                                                                        72070469000108    302                 OUTROS          
D8189425500030919125383000152    Q.DELICIAPANIFICADORAECONFEITARIA-E     RUASANTOMENEGAZZO223                    SANTARITA4                    86072-280LONDRINA                      PR                                                                                        19125383000152    362                 OUTROS          
D8189425500030931287845000133    V.L.RISSARDOMOISESLANCHONETEERESTA      AVBANDEIRANTES657                       VILAIPIRANGA                  86010-020LONDRINA                      PR                                                                                        31287845000133    302                 OUTROS          
D8189425500030901501215000159    ARLETETIEMISATOKOIKE                    RUAQUINTINOBOCAIUVA1094                 VL.AGARI                      86020-150LONDRINA                      PR                                                                                        01501215000159    302                 OUTROS          
D8189425500030934923314000188    SANDRAREGINADEOLIVEIRASILVA             RUAFRANCISCOCESARNOGARI1165             VILASANTATEREZINHA            86490-000RIBEIRAODOPINHAL              PR                                                                                        34923314000188    345                 OUTROS          
D8189425500030905095490000170    GRUPOEVENTUSPROMOCOESLTDA-ME            RUAVER.ANGELINOJ.NUNES154               CONJ.SOLNASCENTE              86220-000ASSAI                         PR                                                                                        05095490000170    000                 OUTROS          
D8189425500030930212890000166    JOAOPAULOALEXANDREGUAITA86222538991     ROTAVIORODRIGUESFERREIRAFILHO1027       CENTRO                        86390-000CAMBARA                       PR                                                                                        30212890000166    000                 OUTROS          
D8189425500030910926465000121    J.C.SANTOSMERCEARIALTDA                 AVPARANA420                             CENTRO                        86280-000URAI                          PR                                                                                        10926465000121    308                 OUTROS          
D8189425500030932918847000146    DATHACOMCOMERCIODEPRODUTOSLTDA          RUAMATOGROSSO202                        CENTRO                        86300-000CORNELIOPROCOPIO              PR                                                                                        32918847000146    347                 OUTROS          
D8189425500030912187627000182    LAUIRDESOUZAGOUVEA30893240915           RJOAOMASINI120                          VILAINDEPENDENCIA             86300-000CORNELIOPROCOPIO              PR                                                                                        12187627000182    347                 OUTROS          
D8189425500030930753480000122    VIVIANEALVESFERREIRA06516779988         RDRZOILOMEIRASIMOES715                  CENTRO                        84285-000FIGUEIRA                      PR                                                                                        30753480000122    314                 OUTROS          
D8189425500030931998573000180    MARCOSRODRIGUES03680774974              RSAOJOSE297A                            JARDIMSANTAIZABEL             86183-310CAMBE                         PR                                                                                        31998573000180    301                 OUTROS          
D8189425500030979185138000162    IBRAHIMKANJMOHANNA                      AVDELFIMMOREIRA528                      CENTRO                        86350-000SANTAMARIANA                  PR                                                                                        79185138000162    346                 OUTROS          
D8189425500030905001666000188    AZEVEDOEPIPOLOADVOGADOSASSOCIADOS       RUABENTOMUNHOZDAROCHANETO157            GUANABARA                     86050-010LONDRINA                      PR                                                                                        05001666000188    302                 OUTROS          
D8189425500030977655066000144    CASADECARNEEMERCEARIAVALDETELTDA        RUACELEMILIOGOMES914                    CENTRO                        86410-000RIBEIRAOCLARO                 PR                                                                                        77655066000144    349                 OUTROS          
D8189425500030903224873000176    RESTAURANTEMRGULALTDA                   AVRIODEJANEIRO1062                      CENTRO                        86220-000ASSAI                         PR                                                                                        03224873000176    330                 OUTROS          
D8189425500030922521404000163    PANIZIOEALVESLTDA-ME                    AVMINASGERAIS139                        CENTRO                        86300-000CORNELIOPROCOPIO              PR                                                                                        22521404000163    347                 OUTROS          
D8189425500030924115736000173    ALTIERESJANUARIOTHEMOTEO06617904958     CJHRUAHONORIORAMALHO91                  JARDIMALVORADAI               86240-000SAOSEBASTIAODAAMOREIRA        PR                                                                                        24115736000173    358                 OUTROS          
D8189425500030932422094000183    VICENTEDEPAULALUIZ02617719901           AVRUIBARBOSA959                         CENTRO                        86340-000SERTANEJA                     PR                                                                                        32422094000183    309                 OUTROS          
D8189425500030906955620000160    MARIADASGRACASMARIANO00591353954        AVSERVIDORESMUNICIPAIS205               CENTRO                        86280-000URAI                          PR                                                                                        06955620000160    308                 OUTROS          
D8189425500030935216444000143    ANACAROLINEPEREIRAVICENTE11197908919    10AVRIODEJANEIRO109                     VILASAOPEDRO                  86220-000ASSAI                         PR                                                                                        35216444000143    330                 OUTROS          
D8189425500030940930953000173    ANAFLAVIARIBEIROELIAS07398631936        RUACURITIBA408                          CONGONHAS                     86305-000CORNELIOPROCOPIO              PR                                                                                        40930953000173    347                 OUTROS          
D8189425500030935816003000182    DALRRICOMERCIOVAREJISTADEGENEROSALI     RMICHELDIB123                           CONJUNTOUNIVERSITARIO         86300-000CORNELIOPROCOPIO              PR                                                                                        35816003000182    347                 OUTROS          
D8189425500030910723749000110    CLAUDECIRDELIMA-BAR                     RUAHENRIQUESPAGOLA1162                  CENTRO                        86350-000SANTAMARIANA                  PR                                                                                        10723749000110    346                 OUTROS          
D8189425500030941558822000170    OLEMAIZAURAPESSOA                       PCCOMENDADORGEREMIASLUNARDELLI214       CENTRO                        86240-000SAOSEBASTIAODAAMOREIRA        PR                                                                                        41558822000170    358                 OUTROS          
D8189425500030937833707000199    JOSEMACHADODELIMA66693241972            RCONEGOVENCESLAUVICTOR185               JARDIMPRIMAVERA               86490-000RIBEIRAODOPINHAL              PR                                                                                        37833707000199    345                 OUTROS          
D8189425500030975387563000345    MITRADIOCESANADECORNELIOPROCOPIO        RODPR160S/N                             CENTRO                        86300-000CORNELIOPROCOPIO              PR                                                                                        75387563000345    347                 OUTROS          
D8189425500030942041587000127    CLEBERSONVALENTINFERREIRA03039732935    AVDOSCRAVOS1230                         JARDIMPANORAMA                86300-000CORNELIOPROCOPIO              PR                                                                                        42041587000127    347                 OUTROS          
D8189425500030923393563000192    FLAVIOMARCIOBATISTAROSSETO0202834891    RUAMANOELDASILVAMACHADO1290             VILATREVO                     86350-000SANTAMARIANA                  PR                                                                                        23393563000192    346                 OUTROS          
D8189425500030916454717000143    CASADECARNESTRADICAODELEOPOLISLTDA      RUANOSSASENHORAAPARECIDA503             CENTRO                        86330-000LEOPOLIS                      PR                                                                                        16454717000143    310                 OUTROS          
D8189425500030939683845000164    ELIZANGELAGERIONIGOMESDASILVA           AVNOSSASENHORADEFATIMA584               VILASANTATEREZINHA            86300-000CORNELIOPROCOPIO              PR                                                                                        39683845000164    347                 OUTROS          
D8189425500030915123552000164    ANAKARINAPEREIRAMORAES05981821957       RANTONIODACRUZ329                       FLORENCIOREBOLHO              86300-000CORNELIOPROCOPIO              PR                                                                                        15123552000164    347                 OUTROS          
D8189425500030945134472000175    ANDREDOMINGUESDASILVA00053573900        RUADEPUTADOFRANCISCOSCORSIM245          CONJCOPAZZZA                  86220-000ASSAI                         PR                                                                                        45134472000175    330                 OUTROS          
D8189425500030946048758000109    JULIANESANTOSDASILVA06306779990         AVENIDAPARANA285                        CENTRO                        86230-000NOVAAMERICADACOLINA           PR                                                                                        46048758000109    331                 OUTROS          
D8189425500030943456772000145    LUISANTONIOSGUISSARDIARAUJODURAES10     RUAXVDENOVEMBRO8                        CENTRO                        86320-000CONGONHINHAS                  PR                                                                                        43456772000145    356                 OUTROS          
D8189425500030975397455000434    MOLICENTERLOJA7                         RUAGETULIOVARGAS1161                    CENTRO                        86220-000ASSAI                         PR                                                                                        75397455000434    330                 OUTROS          
D8189425500030910284814000159    C.BATISTASIMAO-MERCEARIA                RSEBASTIANADOCARMOBREGAGNOLO25          JARDIMVENEZA                  86300-000CORNELIOPROCOPIO              PR                                                                                        10284814000159    347                 OUTROS          
D8189425500030935644417000171    FERNANDOMARCELOMIOTTO                   RUAWLADIMIRALVESARANHA211               JARDIMMORUMBI                 86360-000BANDEIRANTES                  PR                                                                                        35644417000171    160                 OUTROS          
D8189425500030977213353000102    VERONICAFERNANDAHELBESILVA-MERCADO      AVPREFCARLIRIOGOMESDOSSANTOS354         CENTRO                        86370-000SANTAAMELIA                   PR                                                                                        77213353000102    350                 OUTROS          
D8189425500030946479837000166    FERNANDARODRIGUESMONTEIRO03105594990    RUAPEDRINAMENON44                       CONJHENRIQUEVITORRELI         86300-000CORNELIOPROCOPIO              PR                                                                                        46479837000166    347                 OUTROS          
D8189425500030934576661000181    FLAVIOHENRIQUECOSTAGUERREIRO08127044    1ARROBERTOCAMARGO213                    LAGEADOLISO                   84290-000SAPOPEMA                      PR                                                                                        34576661000181    316                 OUTROS          
D8189425500030936350855000190    ESMERALDAELEUTERIO                      RPARTICULAR159                          VILAHERMINIA                  86490-000RIBEIRAODOPINHAL              PR                                                                                        36350855000190    345                 OUTROS          
D8189425500030910599877000102    JONATHANDSOBRALLTDA                     RUADRMARCELINONOGUEIRA25                CENTRO                        86490-000RIBEIRAODOPINHAL              PR                                                                                        10599877000102    345                 OUTROS          
D8189425500030927104640000106    RUBENSMARQUESDEOLIVEIRA03349046924      RDESEMBARGADORANTONIOFRANCOFERREIRA622  CENTRO                        86490-000RIBEIRAODOPINHAL              PR                                                                                        27104640000106    345                 OUTROS          
D8189425500030995386710000108    OSWALDOSUTIL&SUTILLTDA                  RUALUIZPERUSSOSOBRINHO61                CENTRO                        86270-000SAOJERONIMODASERRA            PR                                                                                        95386710000108    352                 OUTROS          
D8189425500030938179576000130    JONATAPAULODECASTILHO08534143943        RNABORALVESDEMESQUITA168                JARDIMFABIANA                 84990-000ARAPOTI                       PR                                                                                        38179576000130    304                 OUTROS          
D8189425500030942312704000140    J.A.SIQUEIRASUPERMERCADOLTDA            RUAJOAQUIMBATISTARIBEIRO1076            CENTRO                        84261-070TELEMACOBORBA                 PR                                                                                        42312704000140    157                 OUTROS          
D8189425500030905088408000180    JOELAPARECIDODEAZEVEDO-IBAITI           RJOSEFERMINODEBARROS73                  CENTRO                        84900-000IBAITI                        PR                                                                                        05088408000180    324                 OUTROS          
D8189425500030929739155000126    ANGELITAFERREIRAMOREIRA-MERCEARIA       AVPRESIDENTEGETULIOVARGAS157            CENTRO                        86225-000SANTACECILIADOPAVAO           PR                                                                                        29739155000126    357                 OUTROS          
D8189425500030936890224000163    PAULOFERREIRADOSSANTOS01881527921       AVRAULPROENCA365                        CENTRO                        86270-000SAOJERONIMODASERRA            PR                                                                                        36890224000163    352                 OUTROS          
D8189425500030917571664000103    LEODIRVIEIRADAROSA24463582920           RUATRINTA213                            CHAPADA                       84064-609PONTAGROSSA                   PR                                                                                        17571664000103    000                 OUTROS          
D8189425500030975119594000153    INDECOMDEBEBIDASVALLELTDA               AVENIDAPEDROVALLE242                    CENTRO                        86450-000QUATIGUA                      PR                                                                                        75119594000153    000                 OUTROS          
D8189425500030943255783000167    MARIAROZANGELACORREIACADAVAL99056666    AVBRASIL463                             VILAPARAISO                   86825-000MARILANDIADOSUL               PR                                                                                        43255783000167    353                 OUTROS          
D8189425500030900009331486901    VENDEDOR-ERIKRENANLUCIANIDEALMEIDA      RUAPROFESSORROCHAPOMBO103               JARDIMSILVINO                 86188-570CAMBE                         PR                                                                                        00009331486901    300                 OUTROS          
D8189425500030927803471000194    ALEXANDRODOSSANTOS                      AVBRASIL980                             VILAPARAISO                   86825-000MARILANDIADOSUL               PR                                                                                        27803471000194    353                 OUTROS          
D8189425500030904828275000179    J.GATOTRANSPORTEETURISMO                AVBRASIL850                             VILAPARAISO                   86825-000MARILANDIADOSUL               PR                                                                                        04828275000179    353                 OUTROS          
D8189425500030985053676000104    JBRIBEIRO-MERCADINHO                    RUAINDICO450                            NUCLEOM.O.P                   86825-000MARILANDIADOSUL               PR                                                                                        85053676000104    353                 OUTROS          
D8189425500030931951515000109    MILTONSOARESDOSSANTOS03117668977        RPARANA485                              JARDIMTOQUIO                  86825-000MARILANDIADOSUL               PR                                                                                        31951515000109    353                 OUTROS          
[...]
D8189425500030923371654000127    ROSILDADESOUZALUCAS                     RMACHADODEASSIS45                       OLIVEIRA                      84250-000IMBAU                         PR                                                                                        23371654000127    333                 OUTROS          
D8189425500030927213593000120    MICHELLEDESOUZADIAS08292032908          AVPARANA87                              GUARAVERA                     86120-000LONDRINA                      PR                                                                                        27213593000120    337                 OUTROS          
D8189425500030975762955000185    SEBASTIAOJOSEDELIMAECIALTDA-ME          RUAAMANTINOHONORATOCARVALHO163          JARDIMACAPULCO                86045-250LONDRINA                      PR                                                                                        75762955000185    362                 OUTROS          
D8189425500030932618905000116    DANIELEMORAISRIBEIRO04005144942         AVBRASILS/N                             CHARQUEADADEBAIXO             84250-000IMBAU                         PR                                                                                        32618905000116    333                 OUTROS          
D8189425500030948560482000160    VITORIASUPERMERCADO                     RUAALBATROZREAL-300300                  JARDIMSANRAFAEL               86703-484ARAPONGAS                     PR                                                                                        48560482000160    153                 OUTROS          
D8189425500030978622321000115    SUPERMERCADOCAMBARALTDA                 AVDOCAFE123                             JDCAMBARA                     86038-000LONDRINA                      PR                                                                                        78622321000115    302                 OUTROS          
D8189425500030931415478000106    ELIANEDEJESUSRIBEIROOLIVEIRA            VMARGENAL773                            VILAGOMES                     84350-000ORTIGUEIRA                    PR                                                                                        31415478000106    156                 OUTROS          
D8189425500030943037652000103    ANDRADEDASILVASERVICOSADMINISTRATIVO    RUAGUADALAJARA66                        SANTAROSA                     86050-100LONDRINA                      PR                                                                                        43037652000103    362                 OUTROS          
D8189425500030905663508000193    FATIMAALEIXOFERREIRACASTANHOEIRELI      AVENIDALOURENCOFADEL319                 JARDIMBOAVISTA                86191-420CAMBE                         PR                                                                                        05663508000193    301                 OUTROS          
D8189425500030917730752000100    MEDEIROS&GODOIPADARIAECONFEITARIAL      RUASAOJOAO64                            PARQUEBELAVISTA               86400-008JACAREZINHO                   PR                                                                                        17730752000100    167                 OUTROS          
D8189425500030922665505000108    JAIMEALEXANDRE75489252987               RTOPETINHOPAVAO293                      JARDIMSANRAPHAELV             86703-898ARAPONGAS                     PR                                                                                        22665505000108    153                 OUTROS          
D8189425500030916615530000184    ROSINEIBARBOSADOSSANTOSOLIVEIRA-MINI    RUALAURENTINOR.DEOLIVEIRA20             CENTRO                        84900-000IBAITI                        PR                                                                                        16615530000184    324                 OUTROS          
D8189425500030927008498000195    A.L.BOURSCHEID                          RODDOCAFEBR3761018                      BAIRRODOSFRANCAS              84350-000ORTIGUEIRA                    PR                                                                                        27008498000195    156                 OUTROS          
D8189425500030911607551000134    MERCADOMOCHONLTDA_ME                    RUAVEREADORHUMBERTOSCHENNA396           CENTRO                        84900-000IBAITI                        PR                                                                                        11607551000134    324                 OUTROS          
D8189425500030924416486000101    GATURAMOCOMERCIODEALIMENTOSEIRELI       RUAGATURAMO1525                         JARDIMPRIMAVERA               86702-525ARAPONGAS                     PR                                                                                        24416486000101    153                 OUTROS          
D8189425500030905584353000108    ROSILENEMENDESDASILVAECIALTDA-EP        RUAEXPEDICIONARIOS389                   CENTRO                        84950-000WENCESLAUBRAZ                 PR                                                                                        05584353000108    334                 OUTROS          
D8189425500030941575608000121    MARIANELMADELIMA91425760910             AVAVENIDAPARANA264                      CENTRO                        84350-000ORTIGUEIRA                    PR                                                                                        41575608000121    156                 OUTROS          
D8189425500030941294118000157    ELIJESSICACARMONAKISLEI06980717944      RUAPARANA53                             CENTRO                        86290-000RANCHOALEGRE                  PR                                                                                        41294118000157    311                 OUTROS          
D8189425500030942217526000178    NELSONXIMENES79416969915                10RTEOBALDOSANTOS305                    VILASANTOANTONIO              84990-000ARAPOTI                       PR                                                                                        42217526000178    304                 OUTROS          
D8189425500030931407605000125    NEIVAMARIADASILVAMONTEIRO0164780491     AVPRESIDENTEKENNEDY137                  CENTRO                        84165-110CASTRO                        PR                                                                                        31407605000125    366                 OUTROS          
D8189425500030951493764000105    PWPCOMERCIODEALIMENTOSLTDA              RUALUIZRODRIGUESGARCIA82                PARQUELEBLON                  86082-860LONDRINA                      PR                                                                                        51493764000105    361                 OUTROS          
D8189425500030932139861000141    MARCELOAUGUSTODESOUZA                   RUAEVARISTOCAMARGO795                   CENTRO                        86125-000TAMARANA                      PR                                                                                        32139861000141    313                 OUTROS          
D8189425500030950147698000140    50.147.698IVANEZAFRANDINIDOMINGUES      AVANTONIOCUNHA90                        CENTRO                        84280-000CURIUVA                       PR                                                                                        50147698000140    360                 OUTROS          
D8189425500030951151528000100    MERCEARIASANTOANTONIOTIBAGILTDA         RUAJOAOBATISTARIBEIRO456                SANTOANTONIO                  84300-000TIBAGI                        PR                                                                                        51151528000100    367                 OUTROS          
D8189425500030947733061000121    47.733.061MARIADACONCEICAOMARINS        RUAAGENORFRIZO687                       CENTRO                        84945-000SALTODOITARARE                PR                                                                                        47733061000121    318                 OUTROS          
D8189425500030946657824000130    NATANDECARVALHOACOSTA08852665951        RUADASPALMEIRAS53                       JARDIMPRIMAVERA               86450-000QUATIGUA                      PR                                                                                        46657824000130    325                 OUTROS          
D8189425500030901551730000143    ESSALIMENTACAOLTDA                      RUADOMHENRIQUE414                       AEROPORTO                     86036-050LONDRINA                      PR                                                                                        01551730000143    302                 OUTROS          
D8189425500030902796637000161    SUELIBERGAMINIJERONYMO                  AVPARANA460                             CENTRO                        86200-000IBIPORA                       PR                                                                                        02796637000161    305                 OUTROS          
D8189425500030908582655000127    TANIZAKIECIALTDA                        RODDOCAFEBR376KM298SN                   SERRADOCADEADO                86828-000MAUADASERRA                   PR                                                                                        08582655000127    163                 OUTROS          
D8189425500030912326182000174    JOSECARLOSDECARVALHO00691791902         RIBRAIMPRUDENTEDASILVA1070              VILAESPERANCA                 86200-000IBIPORA                       PR                                                                                        12326182000174    305                 OUTROS          
D8189425500030927995569000190    JAMILFERREIRADEPAULA26061479875         RUATAMANDUA2                            VILASANTAIZABEL               84290-000SAPOPEMA                      PR                                                                                        27995569000190    316                 OUTROS          
D8189425500030922318058000110    MARCELAGODOISILVA04644904996            RUACANDIDAALVEZQUEIROZ217               CONJ.HAB.MANOELNOWISKI        86210-000JATAIZINHO                    PR                                                                                        22318058000110    326                 OUTROS          
D8189425500030950371732000166    RESTAURANTEELANCHONETEPARADADASANDO     AVDONATOMARCONDESCHAVES49               SAOBENTO                      84300-000TIBAGI                        PR                                                                                        50371732000166    368                 OUTROS          
D8189425500030936329278000154    ESANIASARDINHAMILAOPEREIRADASILVA0      RUAJOAOMARQUESDASILVA355                JARDIMSAOJORGE                86082-820LONDRINA                      PR                                                                                        36329278000154    361                 OUTROS          
D8189425500030913493339000119    WILSONDECARVALHORODRIGUES               RDAUNIAO84                              JARDIMESPERANCA               86125-000TAMARANA                      PR                                                                                        13493339000119    313                 OUTROS          
D8189425500030942489355000136    VINICIUSDEOLIVEIRA09704743939           RSANTACATARINA411                       VILASAOPEDRO                  86400-000JACAREZINHO                   PR                                                                                        42489355000136    167                 OUTROS          
D8189425500030937433063000141    JEANMARLONDECASTROBENTO06347318903      RJOAOVOLTARELLI279                      CENTRO                        86820-000CALIFORNIA                    PR                                                                                        37433063000141    303                 OUTROS          
D8189425500030950123916000107    50.123.916MATHEUSAUGUSTORIBEIRO         RVEREADORESMAELFERREIRADACOSTA12        CONJUNTONOVOHORIZONTE         86270-000SAOJERONIMODASERRA            PR                                                                                        50123916000107    352                 OUTROS          
D8189425500030907129754000195    VALDINEIRODRIGUESLONDRINA               RUANOVAESPERANCA267                     LINDOIA                       86031-140LONDRINA                      PR                                                                                        07129754000195    361                 OUTROS          
D8189425500030938365180000188    ANALUCIANEVESDASILVA54285380900         RUAEMILIOVIZENTINSN                     PORTALDEVERSALHES2            86063-110LONDRINA                      PR                                                                                        38365180000188    302                 OUTROS          
D8189425500030900072167000168    ELORTIZPRESTACAODESERVICOS              AVPONTAGROSSA845                        CENTRO                        86828-000MAUADASERRA                   PR                                                                                        00072167000168    163                 OUTROS          
D8189425500030920836905000103    SIMONERAMOSCOELHO05580841922            RVICENTEDEMACHADO183                    CENTRO                        86200-000IBIPORA                       PR                                                                                        20836905000103    305                 OUTROS          
D8189425500030901753597000108    ACOUGUEZENILDOZADRALTDA                 RUACLOTARIOPORTUGAL179                  CENTRO                        84240-000PIRAIDOSUL                    PR                                                                                        01753597000108    332                 OUTROS          
D8189425500030975347583000120    JOAOMCDASILVA-SECOSEMOLHADOS            AVGETULIOVARGAS1453                     CENTRO                        86225-000SANTACECILIADOPAVAO           PR                                                                                        75347583000120    357                 OUTROS          
D8189425500030905292074000162    FSILVAJUNIOR-RESTAURANTE                RUA7DESETEMBRO1212                      CENTRO                        86430-000SANTOANTONIODAPLATINA         PR                                                                                        05292074000162    327                 OUTROS          
D8189425500030979714390000111    GERIONIECOSTAPINTOCOMERCIODEALIMEN      AVKOTAROITIMURA1350                     CENTRO                        86280-000URAI                          PR                                                                                        79714390000111    308                 OUTROS          
D8189425500030933568539000109    PAULINACIONEKCOSTA08826895929           RARIBORBACARNEIRO440                    CENTRO                        84320-000RESERVA                       PR                                                                                        33568539000109    368                 OUTROS          
D8189425500030937141501000106    DIOMARDEALMEIDADIARCIZIO                RUAIBRAIMPRUDENTEDASILVA1809            RECANTOALVORADAI              86200-000IBIPORA                       PR                                                                                        37141501000106    305                 OUTROS          
D8189425500030976562198000592    HOSPITALNOSSASENHORADASGRACAS           RRIOBRANCO518                           CENTRO                        86800-120APUCARANA                     PR                                                                                        76562198000592    150                 OUTROS          
D8189425500030923842245000161    EDILENEPRECOMA-PANIFICADORA-ME          AVANTONIORAMINELLI221                   PARQUERESIDENCIAL             86183-502CAMBE                         PR                                                                                        23842245000161    301                 OUTROS          
D8189425500030907049910000108    TABERNAESPETARIA                        RJOSECAMPI90                            JARDIMBOAVISTA                86191-430CAMBE                         PR                                                                                        07049910000108    301                 OUTROS          
D8189425500030928359256000109    ROBERTOAPARECIDODASILVAEIRELI-ME        DESEMBARGADORANTONIOFRANCOFERREIRA175   CENTRO                        86350-000SANTAMARIANA                  PR                                                                                        28359256000109    346                 OUTROS          
D8189425500030939928201000199    NOELLIMADOSSANTOS12405642875            AVPONTAGROSSA918                        CENTRO                        86828-000MAUADASERRA                   PR                                                                                        39928201000199    163                 OUTROS          
D8189425500030922952098000110    NOEMIABATISTADESOUZAFERREIRA            RJOAOLIU343                             CONJUNTONOVAAURORA            86340-000SERTANEJA                     PR                                                                                        22952098000110    309                 OUTROS          
D8189425500030905197581000117    NOVALANDROLANCHONETELTDA                AVENIDABRASILIA5476                     YARA                          86027-020LONDRINA                      PR                                                                                        05197581000117    302                 OUTROS          
D8189425500030910725503000188    NUTRIBELLACOMDEPRODUTOSALIMLTDA         AVENIDAJORGECASONI704                   JDBARRAGRANDE                 86026-110LONDRINA                      PR                                                                                        10725503000188    302                 OUTROS          
D8189425500030900003268435904    NUZINEITRIANOANGELOZI                   RUACAETANOMUNHOZDAROCHA127              CENTRO                        86140-000PRIMEIRODEMAIO                PR                                                                                        00003268435904    307                 OUTROS          
D8189425500030979206207000177    ORODRIGUESFILHO-ME                      RUAMARIACASAGRANDEFAVORETO156           PQDASINDUSTRIAS               86170-000SERTANOPOLIS                  PR                                                                                        79206207000177    306                 OUTROS          
D8189425500030924947726000102    O.J.PACHECO-MERCEARIA                   AVDOSCRAVOS1230                         JARDIMPANORAMA                86300-000CORNELIOPROCOPIO              PR                                                                                        24947726000102    347                 OUTROS          
D8189425500030912716499000117    CARLOSROBERTOARAUJODOSSANTOS7902793     RODDOCAFEBR376333                       FRANCAS                       84350-000ORTIGUEIRA                    PR                                                                                        12716499000117    156                 OUTROS          
D8189425500030936233264000213    CORONELALIMENTOSLTDA                    RODCELSOGARCIACIDKM377S/N               SHOPPINGCATUAI                86050-901LONDRINA                      PR                                                                                        36233264000213    362                 OUTROS          
